tests/data/state_estimation/link-after-trafo-with-node-injection-sensor/input.json
{
  "version": "1.0",
  "type": "input",
  "is_batch": false,
  "attributes": {},
  "data": {
    "node": [
      {"id": 30, "u_rated": 400},
      {"id": 90, "u_rated": 10000},
      {"id": 112, "u_rated": 400}
    ],
    "source": [
      {"id": 207, "node": 90, "status": 1, "u_ref": 1, "u_ref_angle": 0}
    ],
    "transformer": [
      {"id": 208, "from_node": 90, "to_node": 112, "from_status": 1, "to_status": 1, "u1": 10000, "u2": 400, "sn": 630000, "uk": 0.040000000000000001, "pk": 6800.2200000000003, "i0": 0.0018730158730158729, "p0": 1180, "winding_from": 1, "winding_to": 1, "clock": 0, "tap_side": 1, "tap_pos": 5, "tap_min": 1, "tap_max": 9, "tap_nom": 5, "tap_size": 10, "r_grounding_from": 0, "x_grounding_from": 0, "r_grounding_to": 0, "x_grounding_to": 0}
    ],
    "link": [
      {"id": 229, "from_node": 30, "to_node": 112, "from_status": 1, "to_status": 1}
    ],
    "asym_voltage_sensor": [
      {"id": 329, "measured_object": 30, "u_sigma": 2.3094, "u_measured": [230.94011, 230.94011, 230.94011]}
    ],
    "asym_power_sensor": [
       {"id": 466, "measured_object": 208, "measured_terminal_type": 1, "p_measured": [0, 0, 0], "q_measured": [0, 0, 0], "p_sigma": [1000, 1000, 1000], "q_sigma": [1000, 1000, 1000]},
       {"id": 467, "measured_object": 112, "measured_terminal_type": 9, "p_measured": [0, 0, 0], "q_measured": [0, 0, 0], "p_sigma": [1000, 1000, 1000], "q_sigma": [1000, 1000, 1000]}
    ]
  }
}